# aqueous transport with line Kd adsorption and decay
# EOS9 flow input
ROCKS----1----*----2----*----3----*----4----*----5----*----6----*----7----*----8
rock1    1     2600.       0.1  6.51E-12  6.51E-12  6.51E-12  0.00E+00     952.9
                                    0.00
REFCO         1.0E05       4.0

START----1----*----2----*----3----*----4----*----5----*----6----*----7----*----8
REACT----1MOPR(20)-2----*----3----*----4----*----5----*----6----*----7----*----8
0002
PARAM----1----*-123456789012345678901234----*----5----*----6----*----7----*----8
   21000     500000000000000020571005000
 0.00000E0  8.6400E6    1.e+01  8.64E+03F   1      -9.806650
    1.E-06
           1.001E+05                 4.0

RPCAP----1----*----2----*----3----*----4----*----5----*----6----*----7----*----8
    1           .333       -.1        1.        0.
    1      9.79020E3      .333        1.
TIMES----1----*----2----*----3----*----4----*----5----*----6----*----7----*----8
    2
   4.32e+6  8.6400E6
   
ELEME----1----*----2----*----3----*----4----*----5----*----6----*----7----*----8
F   1   59    1rock1   2.00E-1

CONNE----1----*----2----*----3----*----4----*----5----*----6----*----7----*----8
F   1F   2   58    1    1    1       0.1       0.1       1.0       0.0

GENER----1----*----2----*----3----*----4----*----5----*----6----*----7----*----8
F   1    0                   1     WATE  1.1576E-4          0.
F  60    0                   1     WATE -1.1576E-4          0.

INCON----1----*----2----*----3----*----4----*----5----*----6----*----7----*----8

ENDCY 